 Starting advection model
 20150501                                                                       
                                                                                
                                                                                
                   
 0000                                                                           
                                                                                
                                                                                
                   
 20150502                                                                       
                                                                                
                                                                                
                   
 000                                                                            
                                                                                
                                                                                
                   
 F                                                                              
                                                                                
                                                                                
                   

SET_TIMESTEPS: setting GEOS-Chem timesteps!
-------------------------------------------
Dynamics   Timestep [min] :   30

Grid box longitude centers [degrees]: 
-180.000 -175.000 -170.000 -165.000 -160.000 -155.000 -150.000 -145.000
-140.000 -135.000 -130.000 -125.000 -120.000 -115.000 -110.000 -105.000
-100.000  -95.000  -90.000  -85.000  -80.000  -75.000  -70.000  -65.000
 -60.000  -55.000  -50.000  -45.000  -40.000  -35.000  -30.000  -25.000
 -20.000  -15.000  -10.000   -5.000    0.000    5.000   10.000   15.000
  20.000   25.000   30.000   35.000   40.000   45.000   50.000   55.000
  60.000   65.000   70.000   75.000   80.000   85.000   90.000   95.000
 100.000  105.000  110.000  115.000  120.000  125.000  130.000  135.000
 140.000  145.000  150.000  155.000  160.000  165.000  170.000  175.000

Grid box longitude edges [degrees]: 
-182.500 -177.500 -172.500 -167.500 -162.500 -157.500 -152.500 -147.500
-142.500 -137.500 -132.500 -127.500 -122.500 -117.500 -112.500 -107.500
-102.500  -97.500  -92.500  -87.500  -82.500  -77.500  -72.500  -67.500
 -62.500  -57.500  -52.500  -47.500  -42.500  -37.500  -32.500  -27.500
 -22.500  -17.500  -12.500   -7.500   -2.500    2.500    7.500   12.500
  17.500   22.500   27.500   32.500   37.500   42.500   47.500   52.500
  57.500   62.500   67.500   72.500   77.500   82.500   87.500   92.500
  97.500  102.500  107.500  112.500  117.500  122.500  127.500  132.500
 137.500  142.500  147.500  152.500  157.500  162.500  167.500  172.500
 177.500

Grid box latitude centers [degrees]: 
 -88.000  -86.000  -82.000  -78.000  -74.000  -70.000  -66.000  -62.000
 -58.000  -54.000  -50.000  -46.000  -42.000  -38.000  -34.000  -30.000
 -26.000  -22.000  -18.000  -14.000  -10.000   -6.000   -2.000    2.000
   6.000   10.000   14.000   18.000   22.000   26.000   30.000   34.000
  38.000   42.000   46.000   50.000   54.000   58.000   62.000   66.000
  70.000   74.000   78.000   82.000   86.000   88.000

Grid box latitude edges [degrees]: 
 -90.000  -88.000  -84.000  -80.000  -76.000  -72.000  -68.000  -64.000
 -60.000  -56.000  -52.000  -48.000  -44.000  -40.000  -36.000  -32.000
 -28.000  -24.000  -20.000  -16.000  -12.000   -8.000   -4.000    0.000
   4.000    8.000   12.000   16.000   20.000   24.000   28.000   32.000
  36.000   40.000   44.000   48.000   52.000   56.000   60.000   64.000
  68.000   72.000   76.000   80.000   84.000   86.000   90.000
 Reading I3 met fields
     - Found PS  GEOS-FP I3     met fields for 2015/05/01 00:00
---> DATE: 2015/05/01  GMT: 00:00  X-HRS:       0.000
 Reading I3 met fields
     - Found PS  GEOS-FP I3     met fields for 2015/05/01 03:00
 Reading in met data
 time index           1
     - Found all 6  GEOS-FP A3dyn  met fields for 2015/05/01 01:30
     - Found negomega GEOS-FP I3     met fields for 2015/05/01 01:30
===============================================================================
TPCORE_FVDAS (based on GMI) Tracer Transport Module successfully initialized
===============================================================================
 end chem mod  1.970660058782260E-017
 after emission  1.970660058782260E-017
 at start of do_advection  1.970660058782260E-017
 trb  3.388589138517187E-003
 p_tp1p_tp2   20.5180799978489        20.5173435624842     
 xmass, ymass   51338.1913912014        141.672906549191     
 before tpcore  1.970660058782260E-017
 wz in tpcore   37.3735909440070     
 after tpcore  1.966278172014423E-017
 after residual correction  1.966278172014423E-017
 after advection  1.966278172014423E-017
Performing vertical flux exchange
 at start of flux ex  1.966278172014423E-017
 at end of flux ex stt  1.912153295755609E-017
 after decay  1.904949286605230E-017
---> DATE: 2015/05/01  GMT: 00:30  X-HRS:       0.500
 end chem mod  3.872039388824826E-017
 after emission  3.872039388824826E-017
 at start of do_advection  3.872039388824826E-017
 trb  6.735912024981640E-003
 p_tp1p_tp2   20.5339613049432        20.5173435624842     
 xmass, ymass   51352.5642166188        1.18142513891395     
 before tpcore  3.872039388824826E-017
 wz in tpcore   36.2795246373066     
 after tpcore  3.868735616437841E-017
 after residual correction  3.868735616438018E-017
 after advection  3.868735616438018E-017
Performing vertical flux exchange
 at start of flux ex  3.868735616438018E-017
 at end of flux ex stt  3.772324187648377E-017
 after decay  3.758112012282300E-017
---> DATE: 2015/05/01  GMT: 01:00  X-HRS:       1.000
 end chem mod  5.725202114501934E-017
 after emission  5.725202114501934E-017
 at start of do_advection  5.725202114501934E-017
 trb  1.004860301226022E-002
 p_tp1p_tp2   20.5339613049432        20.5173435624842     
 xmass, ymass   51352.5642166188        1.18142513891395     
 before tpcore  5.725202114501934E-017
 wz in tpcore   36.2795246373066     
 after tpcore  5.720553699876568E-017
 after residual correction  5.720553699876568E-017
 after advection  5.720553699876568E-017
Performing vertical flux exchange
 at start of flux ex  5.720553699876568E-017
 at end of flux ex stt  5.590759278459461E-017
 after decay  5.569696175888688E-017
---> DATE: 2015/05/01  GMT: 01:30  X-HRS:       1.500
 end chem mod  7.536786278108212E-017
 after emission  7.536786278108212E-017
 at start of do_advection  7.536786278108212E-017
 trb  1.333177421745981E-002
 p_tp1p_tp2   20.5339613049432        20.5173435624842     
 xmass, ymass   51352.5642166188        1.18142513891395     
 before tpcore  7.536786278108212E-017
 wz in tpcore   36.2795246373066     
 after tpcore  7.531023580759395E-017
 after residual correction  7.531023580759395E-017
 after advection  7.531023580759395E-017
Performing vertical flux exchange
 at start of flux ex  7.531023580759395E-017
 at end of flux ex stt  7.374734686406343E-017
 after decay  7.346950482974610E-017
---> DATE: 2015/05/01  GMT: 02:00  X-HRS:       2.000
 end chem mod  9.314040585194170E-017
 after emission  9.314040585194170E-017
 at start of do_advection  9.314040585194170E-017
 trb  1.658928997883989E-002
 p_tp1p_tp2   20.5339613049432        20.5173435624842     
 xmass, ymass   51352.5642166188        1.18142513891395     
 before tpcore  9.314040585194170E-017
 wz in tpcore   36.2795246373066     
 after tpcore  9.307379834316703E-017
 after residual correction  9.307379834316703E-017
 after advection  9.307379834316703E-017
Performing vertical flux exchange
 at start of flux ex  9.307379834316703E-017
 at end of flux ex stt  9.129976998127874E-017
 after decay  9.095579945348103E-017
---> DATE: 2015/05/01  GMT: 02:30  X-HRS:       2.500
 end chem mod  1.106267004756768E-016
 after emission  1.106267004756768E-016
 at start of do_advection  1.106267004756768E-016
 trb  1.982418638336724E-002
 p_tp1p_tp2   20.5339613049432        20.5173435624842     
 xmass, ymass   51352.5642166188        1.18142513891395     
 before tpcore  1.106267004756768E-016
 wz in tpcore   36.2795246373066     
 after tpcore  1.105528169275559E-016
 after residual correction  1.105528169275559E-016
 after advection  1.105528169275559E-016
Performing vertical flux exchange
 at start of flux ex  1.105528169275559E-016
 at end of flux ex stt  1.086101018553410E-016
 after decay  1.082009149092308E-016
---> DATE: 2015/05/01  GMT: 03:00  X-HRS:       3.000
 Reading I3 met fields
     - Found PS  GEOS-FP I3     met fields for 2015/05/01 06:00
 Reading in met data
 time index           2
     - Found all 6  GEOS-FP A3dyn  met fields for 2015/05/01 04:30
     - Found negomega GEOS-FP I3     met fields for 2015/05/01 04:30
 end chem mod  1.279077112735663E-016
 after emission  1.279077112735663E-016
 at start of do_advection  1.279077112735663E-016
 trb  2.303889825376415E-002
 p_tp1p_tp2   20.5173435624842        20.5176857085595     
 xmass, ymass   63885.7295040281       -172.900337071907     
 before tpcore  1.279077112735663E-016
 wz in tpcore  -58.9284406140982     
 after tpcore  1.278171413239996E-016
 after residual correction  1.278171413239996E-016
 after advection  1.278171413239996E-016
Performing vertical flux exchange
 at start of flux ex  1.278171413239996E-016
 at end of flux ex stt  1.257370192343003E-016
 after decay  1.252633068812618E-016
---> DATE: 2015/05/01  GMT: 03:30  X-HRS:       3.500
 end chem mod  1.449333735440309E-016
 after emission  1.449333735440309E-016
 at start of do_advection  1.449333735440309E-016
 trb  2.623538192784365E-002
 p_tp1p_tp2   20.5343705725814        20.5176857085595     
 xmass, ymass   63899.6669489228        1.28192524945542     
 before tpcore  1.449333735440309E-016
 wz in tpcore  -60.4690303847104     
 after tpcore  1.448655747938818E-016
 after residual correction  1.448655747938818E-016
 after advection  1.448655747938818E-016
Performing vertical flux exchange
 at start of flux ex  1.448655747938818E-016
 at end of flux ex stt  1.426757912722338E-016
 after decay  1.421382623470419E-016
---> DATE: 2015/05/01  GMT: 04:00  X-HRS:       4.000
 end chem mod  1.618083290098115E-016
 after emission  1.618083290098115E-016
 at start of do_advection  1.618083290098115E-016
 trb  2.941520799388455E-002
 p_tp1p_tp2   20.5343705725814        20.5176857085595     
 xmass, ymass   63899.6669489228        1.28192524945542     
 before tpcore  1.618083290098115E-016
 wz in tpcore  -60.4690303847104     
 after tpcore  1.617381818617072E-016
 after residual correction  1.617381818617072E-016
 after advection  1.617381818617072E-016
Performing vertical flux exchange
 at start of flux ex  1.617381818617072E-016
 at end of flux ex stt  1.594603665910579E-016
 after decay  1.588596020275747E-016
---> DATE: 2015/05/01  GMT: 04:30  X-HRS:       4.500
 end chem mod  1.785296686903437E-016
 after emission  1.785296686903437E-016
 at start of do_advection  1.785296686903437E-016
 trb  3.257973147436703E-002
 p_tp1p_tp2   20.5343705725814        20.5176857085595     
 xmass, ymass   63899.6669489228        1.28192524945542     
 before tpcore  1.785296686903437E-016
 wz in tpcore  -60.4690303847104     
 after tpcore  1.784579898889196E-016
 after residual correction  1.784579898889196E-016
 after advection  1.784579898889196E-016
Performing vertical flux exchange
 at start of flux ex  1.784579898889196E-016
 at end of flux ex stt  1.761098981552675E-016
 after decay  1.754464067288213E-016
---> DATE: 2015/05/01  GMT: 05:00  X-HRS:       5.000
 end chem mod  1.951164733915906E-016
 after emission  1.951164733915906E-016
 at start of do_advection  1.951164733915906E-016
 trb  3.573007669235517E-002
 p_tp1p_tp2   20.5343705725814        20.5176857085595     
 xmass, ymass   63899.6669489228        1.28192524945542     
 before tpcore  1.951164733915906E-016
 wz in tpcore  -60.4690303847104     
 after tpcore  1.950440051300825E-016
 after residual correction  1.950440051300825E-016
 after advection  1.950440051300825E-016
Performing vertical flux exchange
 at start of flux ex  1.950440051300825E-016
 at end of flux ex stt  1.926402728097529E-016
 after decay  1.919145034422398E-016
---> DATE: 2015/05/01  GMT: 05:30  X-HRS:       5.500
 end chem mod  2.115845701050088E-016
 after emission  2.115845701050088E-016
 at start of do_advection  2.115845701050088E-016
 trb  3.886722855730559E-002
 p_tp1p_tp2   20.5343705725814        20.5176857085595     
 xmass, ymass   63899.6669489228        1.28192524945542     
 before tpcore  2.115845701050088E-016
 wz in tpcore  -60.4690303847104     
 after tpcore  2.115120154932487E-016
 after residual correction  2.115120154932487E-016
 after advection  2.115120154932487E-016
Performing vertical flux exchange
 at start of flux ex  2.115120154932487E-016
 at end of flux ex stt  2.090647620079804E-016
 after decay  2.082771136212754E-016
---> DATE: 2015/05/01  GMT: 06:00  X-HRS:       6.000
 Reading I3 met fields
     - Found PS  GEOS-FP I3     met fields for 2015/05/01 09:00
 Reading in met data
 time index           3
     - Found all 6  GEOS-FP A3dyn  met fields for 2015/05/01 07:30
     - Found negomega GEOS-FP I3     met fields for 2015/05/01 07:30
 end chem mod  2.279831703705715E-016
 after emission  2.279831703705715E-016
 at start of do_advection  2.279831703705715E-016
 trb  4.199205017356236E-002
 p_tp1p_tp2   20.5176857085595        20.5198410991677     
 xmass, ymass   79687.8674259810        179.241501072605     
 before tpcore  2.279831703705715E-016
 wz in tpcore   262.596123477540     
 after tpcore  2.278783131891658E-016
 after residual correction  2.278783131891658E-016
 after advection  2.278783131891658E-016
Performing vertical flux exchange
 at start of flux ex  2.278783131891658E-016
 at end of flux ex stt  2.254060631380931E-016
 after decay  2.245568491420167E-016
---> DATE: 2015/05/01  GMT: 06:30  X-HRS:       6.500
 end chem mod  2.442244574992790E-016
 after emission  2.442244574992790E-016
 at start of do_advection  2.442244574992790E-016
 trb  4.510549035061360E-002
 p_tp1p_tp2   20.5365726591219        20.5198410991677     
 xmass, ymass   79689.7927557615        1.46486191065936     
 before tpcore  2.442244574992790E-016
 wz in tpcore   259.719712179721     
 after tpcore  2.441489537200336E-016
 after residual correction  2.441489537200336E-016
 after advection  2.441489537200336E-016
Performing vertical flux exchange
 at start of flux ex  2.441489537200336E-016
 at end of flux ex stt  2.416527412256140E-016
 after decay  2.407423181110759E-016
---> DATE: 2015/05/01  GMT: 07:00  X-HRS:       7.000
 end chem mod  2.604099264683395E-016
 after emission  2.604099264683395E-016
 at start of do_advection  2.604099264683395E-016
 trb  4.820811192666322E-002
 p_tp1p_tp2   20.5365726591219        20.5198410991677     
 xmass, ymass   79689.7927557615        1.46486191065936     
 before tpcore  2.604099264683395E-016
 wz in tpcore   259.719712179721     
 after tpcore  2.603355588601093E-016
 after residual correction  2.603355588601093E-016
 after advection  2.603355588601093E-016
Performing vertical flux exchange
 at start of flux ex  2.603355588601093E-016
 at end of flux ex stt  2.578218931388117E-016
 after decay  2.568505529845188E-016
---> DATE: 2015/05/01  GMT: 07:30  X-HRS:       7.500
 end chem mod  2.765181613417810E-016
 after emission  2.765181613417810E-016
 at start of do_advection  2.765181613417810E-016
 trb  5.130049125892479E-002
 p_tp1p_tp2   20.5365726591219        20.5198410991677     
 xmass, ymass   79689.7927557615        1.46486191065936     
 before tpcore  2.765181613417810E-016
 wz in tpcore   259.719712179721     
 after tpcore  2.764453049257576E-016
 after residual correction  2.764453049257576E-016
 after advection  2.764453049257576E-016
Performing vertical flux exchange
 at start of flux ex  2.764453049257576E-016
 at end of flux ex stt  2.739199534032781E-016
 after decay  2.728879640459547E-016
---> DATE: 2015/05/01  GMT: 08:00  X-HRS:       8.000
 end chem mod  2.925555724032168E-016
 after emission  2.925555724032168E-016
 at start of do_advection  2.925555724032168E-016
 trb  5.438312006187386E-002
 p_tp1p_tp2   20.5365726591219        20.5198410991677     
 xmass, ymass   79689.7927557615        1.46486191065936     
 before tpcore  2.925555724032168E-016
 wz in tpcore   259.719712179721     
 after tpcore  2.924846096254334E-016
 after residual correction  2.924846096254334E-016
 after advection  2.924846096254334E-016
Performing vertical flux exchange
 at start of flux ex  2.924846096254334E-016
 at end of flux ex stt  2.899526265588486E-016
 after decay  2.888602343434803E-016
---> DATE: 2015/05/01  GMT: 08:30  X-HRS:       8.500
 end chem mod  3.085278427007414E-016
 after emission  3.085278427007414E-016
 at start of do_advection  3.085278427007414E-016
 trb  5.745646270916691E-002
 p_tp1p_tp2   20.5365726591219        20.5198410991677     
 xmass, ymass   79689.7927557615        1.46486191065936     
 before tpcore  3.085278427007414E-016
 wz in tpcore   259.719712179721     
 after tpcore  3.084591086821117E-016
 after residual correction  3.084591086821117E-016
 after advection  3.084591086821117E-016
Performing vertical flux exchange
 at start of flux ex  3.084591086821117E-016
 at end of flux ex stt  3.059249090660157E-016
 after decay  3.047723415134420E-016
---> DATE: 2015/05/01  GMT: 09:00  X-HRS:       9.000
 Reading I3 met fields
     - Found PS  GEOS-FP I3     met fields for 2015/05/01 12:00
 Reading in met data
 time index           4
     - Found all 6  GEOS-FP A3dyn  met fields for 2015/05/01 10:30
     - Found negomega GEOS-FP I3     met fields for 2015/05/01 10:30
 end chem mod  3.244759740250928E-016
 after emission  3.244759740250928E-016
 at start of do_advection  3.244759740250928E-016
 trb  6.052094996608244E-002
 p_tp1p_tp2   20.5198410991677        20.5212378594525     
 xmass, ymass   91374.6828735935       -331.290930226715     
 before tpcore  3.244759740250928E-016
 wz in tpcore   99.2539699692282     
 after tpcore  3.243694330340507E-016
 after residual correction  3.243694330340507E-016
 after advection  3.243694330340507E-016
Performing vertical flux exchange
 at start of flux ex  3.243694330340507E-016
 at end of flux ex stt  3.218448769756420E-016
 after decay  3.206323311803400E-016
---> DATE: 2015/05/01  GMT: 09:30  X-HRS:       9.500
 end chem mod  3.402978771210358E-016
 after emission  3.402978771210358E-016
 at start of do_advection  3.402978771210358E-016
 trb  6.357692030303598E-002
 p_tp1p_tp2   20.5380133760705        20.5212378594525     
 xmass, ymass   91379.2137463333        1.49256516459397     
 before tpcore  3.402978771210358E-016
 wz in tpcore   97.7871159209755     
 after tpcore  3.402255650832079E-016
 after residual correction  3.402255650832079E-016
 after advection  3.402255650832079E-016
Performing vertical flux exchange
 at start of flux ex  3.402255650832079E-016
 at end of flux ex stt  3.377076205234324E-016
 after decay  3.364353120773500E-016
---> DATE: 2015/05/01  GMT: 10:00  X-HRS:      10.000
 end chem mod  3.561008580180465E-016
 after emission  3.561008580180465E-016
 at start of do_advection  3.561008580180465E-016
 trb  6.662478975898116E-002
 p_tp1p_tp2   20.5380133760705        20.5212378594525     
 xmass, ymass   91379.2137463333        1.49256516459397     
 before tpcore  3.561008580180465E-016
 wz in tpcore   97.7871159209755     
 after tpcore  3.560325761184174E-016
 after residual correction  3.560325761184174E-016
 after advection  3.560325761184174E-016
Performing vertical flux exchange
 at start of flux ex  3.560325761184174E-016
 at end of flux ex stt  3.535231823424825E-016
 after decay  3.521912890020855E-016
---> DATE: 2015/05/01  GMT: 10:30  X-HRS:      10.500
 end chem mod  3.718568349427782E-016
 after emission  3.718568349427782E-016
 at start of do_advection  3.718568349427782E-016
 trb  6.966478410976497E-002
 p_tp1p_tp2   20.5380133760705        20.5212378594525     
 xmass, ymass   91379.2137463333        1.49256516459397     
 before tpcore  3.718568349427782E-016
 wz in tpcore   97.7871159209755     
 after tpcore  3.717925139180941E-016
 after residual correction  3.717925139180941E-016
 after advection  3.717925139180941E-016
Performing vertical flux exchange
 at start of flux ex  3.717925139180941E-016
 at end of flux ex stt  3.692936854301725E-016
 after decay  3.679023769535263E-016
---> DATE: 2015/05/01  GMT: 11:00  X-HRS:      11.000
 end chem mod  3.875679228942231E-016
 after emission  3.875679228942231E-016
 at start of do_advection  3.875679228942231E-016
 trb  7.269712356413245E-002
 p_tp1p_tp2   20.5380133760705        20.5212378594525     
 xmass, ymass   91379.2137463333        1.49256516459397     
 before tpcore  3.875679228942231E-016
 wz in tpcore   97.7871159209755     
 after tpcore  3.875077650348682E-016
 after residual correction  3.875077650348682E-016
 after advection  3.875077650348682E-016
Performing vertical flux exchange
 at start of flux ex  3.875077650348682E-016
 at end of flux ex stt  3.850214659968181E-016
 after decay  3.835709033404301E-016
---> DATE: 2015/05/01  GMT: 11:30  X-HRS:      11.500
 end chem mod  4.032364492811222E-016
 after emission  4.032364492811222E-016
 at start of do_advection  4.032364492811222E-016
 trb  7.572204733816486E-002
 p_tp1p_tp2   20.5380133760705        20.5212378594525     
 xmass, ymass   91379.2137463333        1.49256516459397     
 before tpcore  4.032364492811222E-016
 wz in tpcore   97.7871159209755     
 after tpcore  4.031807494162693E-016
 after residual correction  4.031807494162693E-016
 after advection  4.031807494162693E-016
Performing vertical flux exchange
 at start of flux ex  4.031807494162693E-016
 at end of flux ex stt  4.007088367968943E-016
 after decay  3.991991722039342E-016
---> DATE: 2015/05/01  GMT: 12:00  X-HRS:      12.000
 Reading I3 met fields
     - Found PS  GEOS-FP I3     met fields for 2015/05/01 15:00
 Reading in met data
 time index           5
     - Found all 6  GEOS-FP A3dyn  met fields for 2015/05/01 13:30
     - Found negomega GEOS-FP I3     met fields for 2015/05/01 13:30
 end chem mod  4.189007613823424E-016
 after emission  4.189007613823424E-016
 at start of do_advection  4.189007613823424E-016
 trb  7.873979601123698E-002
 p_tp1p_tp2   20.5212378594525        20.5204990585755     
 xmass, ymass   97719.8293003554       -1007.94830860457     
 before tpcore  4.189007613823424E-016
 wz in tpcore  -268.717823092123     
 after tpcore  4.188210047181356E-016
 after residual correction  4.188210047181356E-016
 after advection  4.188210047181356E-016
Performing vertical flux exchange
 at start of flux ex  4.188210047181356E-016
 at end of flux ex stt  4.163624741148830E-016
 after decay  4.147938346757436E-016
---> DATE: 2015/05/01  GMT: 12:30  X-HRS:      12.500
 end chem mod  4.344593941424782E-016
 after emission  4.344593941424782E-016
 at start of do_advection  4.344593941424782E-016
 trb  8.175004575011205E-002
 p_tp1p_tp2   20.5372756755055        20.5204990585755     
 xmass, ymass   97729.8030518443        1.52271387119068     
 before tpcore  4.344593941424782E-016
 wz in tpcore  -269.650376740823     
 after tpcore  4.344125449252512E-016
 after residual correction  4.344125449252512E-016
 after advection  4.344125449252512E-016
Performing vertical flux exchange
 at start of flux ex  4.344125449252512E-016
 at end of flux ex stt  4.319774551852918E-016
 after decay  4.303499865368143E-016
---> DATE: 2015/05/01  GMT: 13:00  X-HRS:      13.000
 end chem mod  4.500155460035398E-016
 after emission  4.500155460035398E-016
 at start of do_advection  4.500155460035398E-016
 trb  8.475476036239597E-002
 p_tp1p_tp2   20.5372756755055        20.5204990585755     
 xmass, ymass   97729.8030518443        1.52271387119068     
 before tpcore  4.500155460035398E-016
 wz in tpcore  -269.650376740823     
 after tpcore  4.499753700933095E-016
 after residual correction  4.499753700933095E-016
 after advection  4.499753700933095E-016
Performing vertical flux exchange
 at start of flux ex  4.499753700933095E-016
 at end of flux ex stt  4.475635788054866E-016
 after decay  4.458773896676853E-016
---> DATE: 2015/05/01  GMT: 13:30  X-HRS:      13.500
 end chem mod  4.655429491344195E-016
 after emission  4.655429491344195E-016
 at start of do_advection  4.655429491344195E-016
 trb  8.775389195158327E-002
 p_tp1p_tp2   20.5372756755055        20.5204990585755     
 xmass, ymass   97729.8030518443        1.52271387119068     
 before tpcore  4.655429491344195E-016
 wz in tpcore  -269.650376740823     
 after tpcore  4.655094000164275E-016
 after residual correction  4.655094000164275E-016
 after advection  4.655094000164275E-016
Performing vertical flux exchange
 at start of flux ex  4.655094000164275E-016
 at end of flux ex stt  4.631211102873428E-016
 after decay  4.613763083807170E-016
---> DATE: 2015/05/01  GMT: 14:00  X-HRS:      14.000
 end chem mod  4.810418678474513E-016
 after emission  4.810418678474513E-016
 at start of do_advection  4.810418678474513E-016
 trb  9.074742700036187E-002
 p_tp1p_tp2   20.5372756755055        20.5204990585755     
 xmass, ymass   97729.8030518443        1.52271387119068     
 before tpcore  4.810418678474513E-016
 wz in tpcore  -269.650376740823     
 after tpcore  4.810156239580376E-016
 after residual correction  4.810156239580376E-016
 after advection  4.810156239580376E-016
Performing vertical flux exchange
 at start of flux ex  4.810156239580376E-016
 at end of flux ex stt  4.786512838392673E-016
 after decay  4.768479722343484E-016
---> DATE: 2015/05/01  GMT: 14:30  X-HRS:      14.500
 end chem mod  4.965135317010806E-016
 after emission  4.965135317010806E-016
 at start of do_advection  4.965135317010806E-016
 trb  9.373540476827390E-002
 p_tp1p_tp2   20.5372756755055        20.5204990585755     
 xmass, ymass   97729.8030518443        1.52271387119068     
 before tpcore  4.965135317010806E-016
 wz in tpcore  -269.650376740823     
 after tpcore  4.964949322803903E-016
 after residual correction  4.964949322803903E-016
 after advection  4.964949322803903E-016
Performing vertical flux exchange
 at start of flux ex  4.964949322803903E-016
 at end of flux ex stt  4.941551193334788E-016
 after decay  4.922933972585353E-016
---> DATE: 2015/05/01  GMT: 15:00  X-HRS:      15.000
 Reading I3 met fields
     - Found PS  GEOS-FP I3     met fields for 2015/05/01 18:00
 Reading in met data
 time index           6
     - Found all 6  GEOS-FP A3dyn  met fields for 2015/05/01 16:30
     - Found negomega GEOS-FP I3     met fields for 2015/05/01 16:30
 end chem mod  5.119949407203128E-016
 after emission  5.119949407203128E-016
 at start of do_advection  5.119949407203128E-016
 trb  9.671789489007086E-002
 p_tp1p_tp2   20.5204990585755        20.5208694825793     
 xmass, ymass   107451.891217282       -821.609143044197     
 before tpcore  5.119949407203128E-016
 wz in tpcore  -65.8403475293634     
 after tpcore  5.119499257432017E-016
 after residual correction  5.119499257432017E-016
 after advection  5.119499257432017E-016
Performing vertical flux exchange
 at start of flux ex  5.119499257432017E-016
 at end of flux ex stt  5.096321933339883E-016
 after decay  5.077121616125250E-016
---> DATE: 2015/05/01  GMT: 15:30  X-HRS:      15.500
 end chem mod  5.273768130651048E-016
 after emission  5.273768130651048E-016
 at start of do_advection  5.273768130651048E-016
 trb  9.969532127255322E-002
 p_tp1p_tp2   20.5374687547987        20.5208694825793     
 xmass, ymass   107461.619616918        1.65034332364503     
 before tpcore  5.273768130651048E-016
 wz in tpcore  -67.5507474557426     
 after tpcore  5.273634263632042E-016
 after residual correction  5.273634263632042E-016
 after advection  5.273634263632042E-016
Performing vertical flux exchange
 at start of flux ex  5.273634263632042E-016
 at end of flux ex stt  5.250698772732173E-016
 after decay  5.230916843067584E-016
---> DATE: 2015/05/01  GMT: 16:00  X-HRS:      16.000
 end chem mod  5.427563357593399E-016
 after emission  5.427563357593399E-016
 at start of do_advection  5.427563357593399E-016
 trb  0.102667340441407     
 p_tp1p_tp2   20.5374687547987        20.5208694825793     
 xmass, ymass   107461.619616918        1.65034332364503     
 before tpcore  5.427563357593399E-016
 wz in tpcore  -67.5507474557426     
 after tpcore  5.427531798537704E-016
 after residual correction  5.427531798537704E-016
 after advection  5.427531798537704E-016
Performing vertical flux exchange
 at start of flux ex  5.427531798537704E-016
 at end of flux ex stt  5.404846732048353E-016
 after decay  5.384484052235704E-016
---> DATE: 2015/05/01  GMT: 16:30  X-HRS:      16.500
 end chem mod  5.581130566761491E-016
 after emission  5.581130566761491E-016
 at start of do_advection  5.581130566761491E-016
 trb  0.105634124498603     
 p_tp1p_tp2   20.5374687547987        20.5208694825793     
 xmass, ymass   107461.619616918        1.65034332364503     
 before tpcore  5.581130566761491E-016
 wz in tpcore  -67.5507474557426     
 after tpcore  5.581203142975148E-016
 after residual correction  5.581203142975148E-016
 after advection  5.581203142975148E-016
Performing vertical flux exchange
 at start of flux ex  5.581203142975148E-016
 at end of flux ex stt  5.558777096610802E-016
 after decay  5.537834486435578E-016
---> DATE: 2015/05/01  GMT: 17:00  X-HRS:      17.000
 end chem mod  5.734481000961362E-016
 after emission  5.734481000961362E-016
 at start of do_advection  5.734481000961362E-016
 trb  0.108595779183181     
 p_tp1p_tp2   20.5374687547987        20.5208694825793     
 xmass, ymass   107461.619616918        1.65034332364503     
 before tpcore  5.734481000961362E-016
 wz in tpcore  -67.5507474557426     
 after tpcore  5.734662081755271E-016
 after residual correction  5.734662081755271E-016
 after advection  5.734662081755271E-016
Performing vertical flux exchange
 at start of flux ex  5.734662081755271E-016
 at end of flux ex stt  5.712503073972414E-016
 after decay  5.690981303459681E-016
---> DATE: 2015/05/01  GMT: 17:30  X-HRS:      17.500
 end chem mod  5.887627817985484E-016
 after emission  5.887627817985484E-016
 at start of do_advection  5.887627817985484E-016
 trb  0.111552414409730     
 p_tp1p_tp2   20.5374687547987        20.5208694825793     
 xmass, ymass   107461.619616918        1.65034332364503     
 before tpcore  5.887627817985484E-016
 wz in tpcore  -67.5507474557426     
 after tpcore  5.887921442798322E-016
 after residual correction  5.887921442798322E-016
 after advection  5.887921442798322E-016
Performing vertical flux exchange
 at start of flux ex  5.887921442798322E-016
 at end of flux ex stt  5.866037137253012E-016
 after decay  5.843936929436529E-016
---> DATE: 2015/05/01  GMT: 18:00  X-HRS:      18.000
 Reading I3 met fields
     - Found PS  GEOS-FP I3     met fields for 2015/05/01 21:00
 Reading in met data
 time index           7
     - Found all 6  GEOS-FP A3dyn  met fields for 2015/05/01 19:30
     - Found negomega GEOS-FP I3     met fields for 2015/05/01 19:30
 end chem mod  6.040937827833456E-016
 after emission  6.040937827833456E-016
 at start of do_advection  6.040937827833456E-016
 trb  0.114504136500811     
 p_tp1p_tp2   20.5208694825793        20.5227126875227     
 xmass, ymass   123373.866848321       -82.8597667185599     
 before tpcore  6.040937827833456E-016
 wz in tpcore  -93.9078852250828     
 after tpcore  6.040797896863876E-016
 after residual correction  6.040797896863876E-016
 after advection  6.040797896863876E-016
Performing vertical flux exchange
 at start of flux ex  6.040797896863876E-016
 at end of flux ex stt  6.019352364014408E-016
 after decay  5.996674543357289E-016
---> DATE: 2015/05/01  GMT: 18:30  X-HRS:      18.500
 end chem mod  6.193304398869695E-016
 after emission  6.193304398869695E-016
 at start of do_advection  6.193304398869695E-016
 trb  0.117450851277456     
 p_tp1p_tp2   20.5391990825511        20.5227126875227     
 xmass, ymass   123395.773285722        2.07880697672801     
 before tpcore  6.193304398869695E-016
 wz in tpcore  -93.6694799449517     
 after tpcore  6.193776718979966E-016
 after residual correction  6.193776718979966E-016
 after advection  6.193776718979966E-016
Performing vertical flux exchange
 at start of flux ex  6.193776718979966E-016
 at end of flux ex stt  6.172612746284082E-016
 after decay  6.149357519412388E-016
---> DATE: 2015/05/01  GMT: 19:00  X-HRS:      19.000
 end chem mod  6.345987374924772E-016
 after emission  6.345987374924772E-016
 at start of do_advection  6.345987374924772E-016
 trb  0.120392395781978     
 p_tp1p_tp2   20.5391990825511        20.5227126875227     
 xmass, ymass   123395.773285722        2.07880697672801     
 before tpcore  6.345987374924772E-016
 wz in tpcore  -93.6694799449517     
 after tpcore  6.346627682599038E-016
 after residual correction  6.346627682599038E-016
 after advection  6.346627682599038E-016
Performing vertical flux exchange
 at start of flux ex  6.346627682599038E-016
 at end of flux ex stt  6.325750590775346E-016
 after decay  6.301918419348761E-016
---> DATE: 2015/05/01  GMT: 19:30  X-HRS:      19.500
 end chem mod  6.498548274861164E-016
 after emission  6.498548274861164E-016
 at start of do_advection  6.498548274861164E-016
 trb  0.123328985116474     
 p_tp1p_tp2   20.5391990825511        20.5227126875227     
 xmass, ymass   123395.773285722        2.07880697672801     
 before tpcore  6.498548274861164E-016
 wz in tpcore  -93.6694799449517     
 after tpcore  6.499357093901938E-016
 after residual correction  6.499357093901938E-016
 after advection  6.499357093901938E-016
Performing vertical flux exchange
 at start of flux ex  6.499357093901938E-016
 at end of flux ex stt  6.478772018912738E-016
 after decay  6.454363341527388E-016
---> DATE: 2015/05/01  GMT: 20:00  X-HRS:      20.000
 end chem mod  6.650993197039778E-016
 after emission  6.650993197039778E-016
 at start of do_advection  6.650993197039778E-016
 trb  0.126260772258350     
 p_tp1p_tp2   20.5391990825511        20.5227126875227     
 xmass, ymass   123395.773285722        2.07880697672801     
 before tpcore  6.650993197039778E-016
 wz in tpcore  -93.6694799449517     
 after tpcore  6.651969666518434E-016
 after residual correction  6.651969666518434E-016
 after advection  6.651969666518434E-016
Performing vertical flux exchange
 at start of flux ex  6.651969666518434E-016
 at end of flux ex stt  6.631682872583288E-016
 after decay  6.606698105827046E-016
---> DATE: 2015/05/01  GMT: 20:30  X-HRS:      20.500
 end chem mod  6.803327961339482E-016
 after emission  6.803327961339482E-016
 at start of do_advection  6.803327961339482E-016
 trb  0.129187885777799     
 p_tp1p_tp2   20.5391990825511        20.5227126875227     
 xmass, ymass   123395.773285722        2.07880697672801     
 before tpcore  6.803327961339482E-016
 wz in tpcore  -93.6694799449517     
 after tpcore  6.804475868243510E-016
 after residual correction  6.804475868243510E-016
 after advection  6.804475868243510E-016
Performing vertical flux exchange
 at start of flux ex  6.804475868243510E-016
 at end of flux ex stt  6.784492876403932E-016
 after decay  6.758932400227509E-016
---> DATE: 2015/05/01  GMT: 21:00  X-HRS:      21.000
 Reading I3 met fields
     - Found PS  GEOS-FP I3     met fields for 2015/05/02 00:00
 Reading in met data
 time index           8
     - Found all 6  GEOS-FP A3dyn  met fields for 2015/05/01 22:30
     - Found negomega GEOS-FP I3     met fields for 2015/05/01 22:30
 end chem mod  6.955913214716566E-016
 after emission  6.955913214716566E-016
 at start of do_advection  6.955913214716566E-016
 trb  0.132110452716091     
 p_tp1p_tp2   20.5227126875227        20.5230465141153     
 xmass, ymass   125219.672121983       -191.191138438492     
 before tpcore  6.955913214716566E-016
 wz in tpcore  -1081.91694496274     
 after tpcore  6.956723751071769E-016
 after residual correction  6.956723751071769E-016
 after advection  6.956723751071769E-016
Performing vertical flux exchange
 at start of flux ex  6.956723751071769E-016
 at end of flux ex stt  6.936979183933568E-016
 after decay  6.910844217857261E-016
---> DATE: 2015/05/01  GMT: 21:30  X-HRS:      21.500
 end chem mod  7.107466445823734E-016
 after emission  7.107466445823734E-016
 at start of do_advection  7.107466445823734E-016
 trb  0.135026429558753     
 p_tp1p_tp2   20.5395331634374        20.5230465141153     
 xmass, ymass   125235.838743522        2.15294813941831     
 before tpcore  7.107466445823734E-016
 wz in tpcore  -1077.69151210305     
 after tpcore  7.108861719348811E-016
 after residual correction  7.108861719348811E-016
 after advection  7.108861719348811E-016
Performing vertical flux exchange
 at start of flux ex  7.108861719348811E-016
 at end of flux ex stt  7.089430962801364E-016
 after decay  7.062721636911722E-016
---> DATE: 2015/05/01  GMT: 22:00  X-HRS:      22.000
 end chem mod  7.259343864878264E-016
 after emission  7.259343864878264E-016
 at start of do_advection  7.259343864878264E-016
 trb  0.137937981770641     
 p_tp1p_tp2   20.5395331634374        20.5230465141153     
 xmass, ymass   125235.838743522        2.15294813941831     
 before tpcore  7.259343864878264E-016
 wz in tpcore  -1077.69151210305     
 after tpcore  7.260931521813698E-016
 after residual correction  7.260931521813698E-016
 after advection  7.260931521813698E-016
Performing vertical flux exchange
 at start of flux ex  7.260931521813698E-016
 at end of flux ex stt  7.241816889989526E-016
 after decay  7.214533452381921E-016
---> DATE: 2015/05/01  GMT: 22:30  X-HRS:      22.500
 end chem mod  7.411155680348384E-016
 after emission  7.411155680348384E-016
 at start of do_advection  7.411155680348384E-016
 trb  0.140845243403784     
 p_tp1p_tp2   20.5395331634374        20.5230465141153     
 xmass, ymass   125235.838743522        2.15294813941831     
 before tpcore  7.411155680348384E-016
 wz in tpcore  -1077.69151210305     
 after tpcore  7.412933372706074E-016
 after residual correction  7.412933372706074E-016
 after advection  7.412933372706074E-016
Performing vertical flux exchange
 at start of flux ex  7.412933372706074E-016
 at end of flux ex stt  7.394137605029553E-016
 after decay  7.366280301389928E-016
---> DATE: 2015/05/01  GMT: 23:00  X-HRS:      23.000
 end chem mod  7.562902529356473E-016
 after emission  7.562902529356473E-016
 at start of do_advection  7.562902529356473E-016
 trb  0.143748293088101     
 p_tp1p_tp2   20.5395331634374        20.5230465141153     
 xmass, ymass   125235.838743522        2.15294813941831     
 before tpcore  7.562902529356473E-016
 wz in tpcore  -1077.69151210305     
 after tpcore  7.564875511766992E-016
 after residual correction  7.564875511766992E-016
 after advection  7.564875511766992E-016
Performing vertical flux exchange
 at start of flux ex  7.564875511766992E-016
 at end of flux ex stt  7.546402374281940E-016
 after decay  7.517971415385061E-016
 ncfile = 20150501.nc
 timeid           4
      155664
      155664
---> DATE: 2015/05/01  GMT: 23:30  X-HRS:      23.500
 end chem mod  7.714593643351531E-016
 after emission  7.714593643351531E-016
 at start of do_advection  7.714593643351531E-016
 trb  0.146647205124307     
 p_tp1p_tp2   20.5395331634374        20.5230465141153     
 xmass, ymass   125235.838743522        2.15294813941831     
 before tpcore  7.714593643351531E-016
 wz in tpcore  -1077.69151210305     
 after tpcore  7.716756001718538E-016
 after residual correction  7.716756001718538E-016
 after advection  7.716756001718538E-016
Performing vertical flux exchange
 at start of flux ex  7.716756001718538E-016
 at end of flux ex stt  7.698609023542403E-016
 after decay  7.669604628354143E-016
---> DATE: 2015/05/02  GMT: 00:00  X-HRS:      24.000
 Reading I3 met fields
     - Found PS  GEOS-FP I3     met fields for 2015/05/02 03:00
 Reading in met data
 time index           1
     - Found all 6  GEOS-FP A3dyn  met fields for 2015/05/02 01:30
     - Found negomega GEOS-FP I3     met fields for 2015/05/02 01:30
 end chem mod  7.866576927388572E-016
 after emission  7.866576927388572E-016
 at start of do_advection  7.866576927388572E-016
 trb  0.149542059992694     
 p_tp1p_tp2   20.5230465141153        20.5217083278032     
 xmass, ymass   115586.971871715        934.309982761624     
 before tpcore  7.866576927388572E-016
 wz in tpcore  -1489.77008925870     
 after tpcore  7.868278945191549E-016
 after residual correction  7.868278945191549E-016
 after advection  7.868278945191549E-016
Performing vertical flux exchange
 at start of flux ex  7.868278945191549E-016
 at end of flux ex stt  7.850308957583200E-016
 after decay  7.820733035146138E-016
 ncfile = average.nc
 timeid           4
      155664
      155664
===============================================================================
Simulation completed
===============================================================================
